Circuit: * C:\Users\admin\Documents\LTspiceXVII\voltageDoubler.asc

.OP point found by inspection.

Date: Mon Jul 10 17:19:46 2017
Total elapsed time: 0.063 seconds.

tnom = 27
temp = 27
method = modified trap
totiter = 7199
traniter = 7199
tranpoints = 2399
accept = 1812
rejected = 587
matrix size = 6
fillins = 0
solver = Normal
Matrix Compiler1: 200 bytes object code size  0.1/0.0/[0.0]
Matrix Compiler2: off  [0.0]/0.0/0.0

